Circuit: * Z:\Users\cwoodall\Wine Files\drive_c\Program Files\LTC\LTspiceIV\GilbertCellMultiplier.asc

Direct Newton iteration failed to find .op point.  (Use ".option noopiter" to skip.)
Starting Gmin stepping
Gmin = 10
Gmin = 1.07374
Gmin = 0.115292
Gmin = 0.0123794
Gmin = 0.00132923
Gmin = 0.000142725
vernier = 0.5
Gmin = 2.39452e-005
vernier = 0.666667
Gmin = 6.14784e-006
vernier = 0.888888
vernier = 1
Gmin = 8.09366e-007
Gmin = 8.6905e-008
Gmin = 9.33136e-009
Gmin = 1.00195e-009
Gmin = 1.07583e-010
Gmin = 1.15517e-011
Gmin = 1.24035e-012
Gmin = 1.33182e-013
Gmin = 0
Gmin stepping succeeded in finding the operating point.


Date: Thu Mar 07 00:46:56 2013
Total elapsed time: 0.276 seconds.

tnom = 27
temp = 27
method = modified trap
totiter = 3568
traniter = 2964
tranpoints = 1430
accept = 1250
rejected = 180
matrix size = 51
fillins = 66
solver = Normal
Matrix Compiler1: 6.08 KB object code size  2.7/2.6/[0.9]
Matrix Compiler2: 5.57 KB object code size  1.5/2.5/[0.9]


