Circuit: * Z:\Users\cwoodall\Wine Files\drive_c\Program Files\LTC\LTspiceIV\ExponentialSource.asc

Direct Newton iteration failed to find .op point.  (Use ".option noopiter" to skip.)
Starting Gmin stepping
Gmin = 10
Gmin = 1.07374
Gmin = 0.115292
Gmin = 0.0123794
Gmin = 0.00132923
Gmin = 0.000142725
Gmin = 1.5325e-005
Gmin = 1.6455e-006
Gmin = 1.76685e-007
Gmin = 1.89714e-008
vernier = 0.5
vernier = 0.25
Gmin = 7.64819e-009
vernier = 0.125
vernier = 0.0625
vernier = 0.03125
vernier = 0.015625
Gmin = 7.08691e-009
vernier = 0.0208333
vernier = 0.0104167
Gmin = 6.87824e-009
vernier = 0.0138889
vernier = 0.0185185
vernier = 0.00925925
Gmin = 6.70365e-009
vernier = 0.0123457
Gmin = 6.52026e-009
vernier = 0.0164609
vernier = 0.00823044
vernier = 0.0109739
Gmin = 6.40077e-009
vernier = 0.0146319
vernier = 0.00731595
Gmin = 6.29063e-009
vernier = 0.00975459
vernier = 0.0130061
Gmin = 6.11939e-009
vernier = 0.0173415
vernier = 0.00867074
vernier = 0.00433537
Gmin = 6.04695e-009
vernier = 0.00578049
vernier = 0.00770732
Gmin = 5.9488e-009
vernier = 0.0102764
vernier = 0.0137019
vernier = 0.00685095
Gmin = 5.83541e-009
vernier = 0.0091346
Gmin = 5.72008e-009
vernier = 0.0121795
vernier = 0.0162393
vernier = 0.00811964
Gmin = 5.59254e-009
vernier = 0.0108262
Gmin = 5.45812e-009
vernier = 0.0144349
vernier = 0.00721745
vernier = 0.00962327
Gmin = 5.37029e-009
vernier = 0.012831
vernier = 0.00641551
Gmin = 5.28916e-009
vernier = 0.00855401
vernier = 0.0114053
Gmin = 5.16267e-009
vernier = 0.0152071
vernier = 0.00760356
vernier = 0.0101381
Gmin = 5.07198e-009
vernier = 0.0135174
vernier = 0.00675872
Gmin = 4.98289e-009
vernier = 0.00901162
vernier = 0.0120155
vernier = 0.00600775
Gmin = 4.89949e-009
vernier = 0.00801033
Gmin = 4.81447e-009
vernier = 0.0106804
vernier = 0.0142406
vernier = 0.00712029
vernier = 0.00356014
Gmin = 4.72858e-009
vernier = 0.00474686
Gmin = 4.67976e-009
vernier = 0.00632914
vernier = 0.00843885
Gmin = 4.6009e-009
vernier = 0.0112518
vernier = 0.0056259
Gmin = 4.53989e-009
vernier = 0.0075012
vernier = 0.0100016
Gmin = 4.44452e-009
vernier = 0.0133355
vernier = 0.00666773
vernier = 0.0088903
Gmin = 4.37598e-009
vernier = 0.0118537
vernier = 0.00592687
vernier = 0.00296343
Gmin = 4.32126e-009
vernier = 0.00395124
vernier = 0.00526832
Gmin = 4.28057e-009
vernier = 0.00702443
Gmin = 4.21535e-009
vernier = 0.0093659
vernier = 0.0124879
vernier = 0.00624394
vernier = 0.00312197
Gmin = 4.14932e-009
vernier = 0.00416262
Gmin = 4.11173e-009
vernier = 0.00555016
vernier = 0.00740021
Gmin = 4.0509e-009
vernier = 0.00986695
vernier = 0.00493347
Gmin = 4.00375e-009
vernier = 0.00657796
vernier = 0.00877062
Gmin = 3.92989e-009
vernier = 0.0116942
vernier = 0.00584708
vernier = 0.0077961
Gmin = 3.87668e-009
vernier = 0.0103948
vernier = 0.0051974
Gmin = 3.8242e-009
vernier = 0.00692986
vernier = 0.00923982
vernier = 0.00461991
Gmin = 3.77487e-009
vernier = 0.00230995
vernier = 0.00115498
vernier = 0.00153997
Gmin = 3.76507e-009
vernier = 0.00205329
vernier = 0.00273772
Gmin = 3.7466e-009
vernier = 0.00365029
Gmin = 3.71682e-009
vernier = 0.00486706
vernier = 0.00648941
Gmin = 3.66855e-009
vernier = 0.00865254
vernier = 0.00432627
vernier = 0.00216314
vernier = 0.00108157
Gmin = 3.64779e-009
vernier = 0.00144209
vernier = 0.00192279
Gmin = 3.63445e-009
vernier = 0.00256371
Gmin = 3.61355e-009
vernier = 0.00341828
vernier = 0.00455771
Gmin = 3.57874e-009
vernier = 0.00607695
vernier = 0.00810259
vernier = 0.0040513
Gmin = 3.53822e-009
vernier = 0.00202565
vernier = 0.00270086
Gmin = 3.51976e-009
vernier = 0.00360115
vernier = 0.00480153
Gmin = 3.48771e-009
vernier = 0.00640204
Gmin = 3.43786e-009
vernier = 0.00853606
vernier = 0.00426803
vernier = 0.00213401
vernier = 0.00284535
Gmin = 3.42384e-009
vernier = 0.0037938
Gmin = 3.39475e-009
vernier = 0.0050584
vernier = 0.00674453
Gmin = 3.34647e-009
vernier = 0.00899271
vernier = 0.00449635
vernier = 0.00224818
vernier = 0.00112409
vernier = 0.000562044
Gmin = 3.33381e-009
vernier = 0.000749392
vernier = 0.000999189
Gmin = 3.32747e-009
vernier = 0.00133225
Gmin = 3.31751e-009
vernier = 0.00177634
vernier = 0.00236845
Gmin = 3.30086e-009
vernier = 0.00315793
vernier = 0.00421057
Gmin = 3.27448e-009
vernier = 0.00561409
Gmin = 3.23341e-009
vernier = 0.00748545
vernier = 0.00374273
vernier = 0.0049903
Gmin = 3.20631e-009
vernier = 0.00665373
vernier = 0.00887164
Gmin = 3.15564e-009
vernier = 0.00443582
vernier = 0.00221791
vernier = 0.00110896
vernier = 0.000554478
vernier = 0.000415858
Gmin = 0
Gmin stepping failed

Starting source stepping with srcstepmethod=0
Source Step = 3.0303%
Source Step = 25.7576%
Source Step = 28.0303%
Source Step = 29.9242%
Source Step = 31.8182%
Source Step = 33.7121%
Source Step = 35.6061%
vernier = 0.09375
Source Step = 38.1629%
Source Step = 41.0038%
Source Step = 43.8447%
Source Step = 46.6856%
Source Step = 49.5265%
vernier = 0.140625
Source Step = 53.2197%
Source Step = 57.4811%
Source Step = 61.7424%
Source Step = 66.0038%
Source Step = 70.2652%
vernier = 0.210938
Source Step = 75.5919%
Source Step = 81.9839%
Source Step = 88.3759%
Source Step = 94.768%
Source stepping succeeded in finding the operating point.

.step r=1
.step r=1000.9
.step r=2000.8
.step r=3000.7
.step r=4000.6
.step r=5000.5
.step r=6000.4
.step r=7000.3
.step r=8000.2
.step r=9000.1
.step r=10000

Date: Mon Feb 25 18:24:29 2013
Total elapsed time: 6.464 seconds.

tnom = 27
temp = 27
method = modified trap
totiter = 2690
traniter = 2082
tranpoints = 1042
accept = 1042
rejected = 0
matrix size = 30
fillins = 45
solver = Normal
Thread vector: 31.5/22.2[2] 6.4/5.5[2] 3.7/3.5[1] 0.4/121.3[1]  2592/500
Matrix Compiler1: 3.80 KB object code size  1.8/1.3/[0.6]
Matrix Compiler2: 3.45 KB object code size  1.0/1.5/[0.5]


