Circuit: * C:\users\cwoodall\My Documents\classes\spring2013\EC412\project\hardware\sims\VoltageControlledAmplifier_Transconductive\VoltageControlledAmplifier_Transconductive.asc

Early termination of direct N-R iteration.
Direct Newton iteration failed to find .op point.  (Use ".option noopiter" to skip.)
Starting Gmin stepping
Gmin = 10
vernier = 0.5
Gmin = 1.67772
vernier = 0.25
vernier = 0.125
vernier = 0.0625
vernier = 0.03125
Gmin = 1.6391
vernier = 0.015625
vernier = 0.0078125
vernier = 0.00390625
Gmin = 1.62636
vernier = 0.00520833
vernier = 0.00260417
vernier = 0.00130208
Gmin = 1.62003
vernier = 0.00173611
vernier = 0.00231481
vernier = 0.00115741
vernier = 0.000578703
Gmin = 1.61488
vernier = 0.000771604
Gmin = 1.61216
vernier = 0.00102881
vernier = 0.00137174
vernier = 0.00068587
vernier = 0.000514403
Gmin = 1.60936
vernier = 0.00068587
Gmin = 1.60695
vernier = 0.000914493
vernier = 0.000457246
Gmin = 0
Gmin stepping failed

Starting source stepping with srcstepmethod=0
Source Step = 3.0303%
Source Step = 33.3333%
Source Step = 63.6364%
Source Step = 93.9394%
Source stepping succeeded in finding the operating point.


Date: Sun Apr 28 12:19:23 2013
Total elapsed time: 1.994 seconds.

tnom = 27
temp = 27
method = modified trap
totiter = 14412
traniter = 9850
tranpoints = 3833
accept = 3484
rejected = 349
matrix size = 76
fillins = 403
solver = Normal
Matrix Compiler1: 27.9 KB object code size  9.9/6.3/[3.4]
Matrix Compiler2: 13.0 KB object code size  3.9/4.3/[1.3]


