Circuit: * C:\users\cwoodall\My Documents\classes\spring2013\EC412\project\hardware\sims\VoltageControlledAmplifier_Transconductive\VoltageControlledAmplifier_Transconductive_NMOS.asc

Error on line 897 : .model mbreaknd nmos  level=1 gamma= 0 xj=0  tox=1200n phi=.6 rs=0 kp=111u vto=2.0 lambda=0.01  rd=0 cbd=2.0p cbs=2.0p pb=.8 cgso=0.1p  cgdo=0.1p is=16.64p n=1
	* Unrecognized parameter "xj" -- ignored
Early termination of direct N-R iteration.
Direct Newton iteration failed to find .op point.  (Use ".option noopiter" to skip.)
Starting Gmin stepping
Gmin = 10
vernier = 0.5
Gmin = 1.67772
vernier = 0.25
vernier = 0.125
vernier = 0.0625
vernier = 0.03125
Gmin = 1.61427
vernier = 0.015625
vernier = 0.0078125
vernier = 0.00390625
Gmin = 1.61266
vernier = 0.00520833
vernier = 0.00260417
vernier = 0.00130208
Gmin = 1.60585
vernier = 0.00173611
vernier = 0.00231481
vernier = 0.00115741
vernier = 0.000578703
Gmin = 1.60145
vernier = 0.000771604
Gmin = 1.59867
vernier = 0.00102881
vernier = 0.00137174
vernier = 0.00068587
vernier = 0.000514403
Gmin = 1.596
vernier = 0.00068587
Gmin = 1.59354
vernier = 0.000914493
vernier = 0.000457246
Gmin = 0
Gmin stepping failed

Starting source stepping with srcstepmethod=0
Source Step = 3.0303%
Source Step = 33.3333%
Source Step = 63.6364%
Source Step = 93.9394%
Source stepping succeeded in finding the operating point.


Date: Wed Apr 03 15:28:25 2013
Total elapsed time: 4.268 seconds.

tnom = 27
temp = 27
method = modified trap
totiter = 70546
traniter = 65501
tranpoints = 31109
accept = 25654
rejected = 5455
matrix size = 63
fillins = 382
solver = Normal
Matrix Compiler1: 29.6 KB object code size  9.2/6.5/[3.2]
Matrix Compiler2: 11.7 KB object code size  3.7/4.1/[1.2]


